Circuit: * C:\Users\Yunus\Desktop\Lab 6\Sim\C1.asc

Direct Newton iteration for .op point succeeded.

Date: Fri Jun 16 17:17:45 2023
Total elapsed time: 0.079 seconds.

tnom = 27
temp = 27
method = trap
totiter = 3
traniter = 0
tranpoints = 0
accept = 0
rejected = 0
matrix size = 11
fillins = 2
solver = Normal
Matrix Compiler1:      31 opcodes
Matrix Compiler2: 989 bytes object code size
