Circuit: * C:\Users\Yunus\Desktop\Lab 6\Sim\C2.asc

Direct Newton iteration for .op point succeeded.

Date: Fri Jun 16 16:47:42 2023
Total elapsed time: 0.141 seconds.

tnom = 27
temp = 27
method = trap
totiter = 3
traniter = 0
tranpoints = 0
accept = 0
rejected = 0
matrix size = 12
fillins = 2
solver = Normal
Matrix Compiler1:      36 opcodes
Matrix Compiler2: 1.06 KB object code size
