Circuit: * C:\Users\Yunus\Desktop\Lab 6\Sim\C3.asc

Direct Newton iteration for .op point succeeded.

Date: Fri Jun 09 21:59:58 2023
Total elapsed time: 0.071 seconds.

tnom = 27
temp = 27
method = trap
totiter = 3
traniter = 0
tranpoints = 0
accept = 0
rejected = 0
matrix size = 10
fillins = 2
solver = Normal
Matrix Compiler1:      28 opcodes
Matrix Compiler2: 794 bytes object code size
