Circuit: * C:\Users\Yunus\Desktop\Lab 6\Sim\C4.asc

Direct Newton iteration for .op point succeeded.

Date: Sun Jun 11 20:42:05 2023
Total elapsed time: 0.078 seconds.

tnom = 27
temp = 27
method = trap
totiter = 3
traniter = 0
tranpoints = 0
accept = 0
rejected = 0
matrix size = 9
fillins = 0
solver = Normal
Matrix Compiler1:      19 opcodes
Matrix Compiler2: 619 bytes object code size
